<?xml version="1.0" encoding="UTF-8"?>

<!-- generated on Mon Apr 27 16:23:27 2015 by SUMO netconvert Version 0.21.0
<?xml version="1.0" encoding="UTF-8"?>

<configuration xmlns:xsi="http://www.w3.org/2001/XMLSchema-instance" xsi:noNamespaceSchemaLocation="http://sumo-sim.org/xsd/netconvertConfiguration.xsd">

    <input>
        <osm-files value="osm/junction5.osm"/>
    </input>

    <output>
        <output-file value="junction5.net.xml"/>
    </output>

    <projection>
        <proj.utm value="true"/>
    </projection>

</configuration>
-->

<net version="0.13" xmlns:xsi="http://www.w3.org/2001/XMLSchema-instance" xsi:noNamespaceSchemaLocation="http://sumo-sim.org/xsd/net_file.xsd">

    <location netOffset="-450160.14,-4421530.13" convBoundary="0.00,0.00,1797.77,1375.46" origBoundary="116.416562,39.942482,116.437606,39.954878" projParameter="+proj=utm +zone=50 +ellps=WGS84 +datum=WGS84 +units=m +no_defs"/>

    <edge id=":-317680_0" function="internal">
        <lane id=":-317680_0_0" index="0" speed="22.22" length="6.23" shape="1090.84,743.39 1088.78,749.27"/>
    </edge>
    <edge id=":-317680_1" function="internal">
        <lane id=":-317680_1_0" index="0" speed="22.22" length="2.41" shape="1090.84,743.39 1089.64,744.27 1088.72,744.38"/>
    </edge>
    <edge id=":-317680_6" function="internal">
        <lane id=":-317680_6_0" index="0" speed="22.22" length="2.41" shape="1088.72,744.38 1088.09,743.71 1087.73,742.27"/>
    </edge>
    <edge id=":-317680_2" function="internal">
        <lane id=":-317680_2_0" index="0" speed="22.22" length="5.51" shape="1083.54,743.36 1084.88,744.23 1086.03,744.34 1086.98,743.68 1087.73,742.27"/>
    </edge>
    <edge id=":-317680_3" function="internal">
        <lane id=":-317680_3_0" index="0" speed="22.22" length="8.02" shape="1083.54,743.36 1085.96,745.54 1087.64,747.25 1088.58,748.50 1088.78,749.27"/>
    </edge>
    <edge id=":-317680_4" function="internal">
        <lane id=":-317680_4_0" index="0" speed="22.22" length="6.37" shape="1085.63,748.28 1087.73,742.27"/>
    </edge>
    <edge id=":-317680_5" function="internal">
        <lane id=":-317680_5_0" index="0" speed="22.22" length="4.82" shape="1085.63,748.28 1086.79,747.35 1087.71,747.20 1088.37,747.85 1088.78,749.27"/>
    </edge>
    <edge id=":-317682_0" function="internal">
        <lane id=":-317682_0_0" index="0" speed="22.22" length="3.41" shape="918.48,154.38 918.26,150.98"/>
    </edge>
    <edge id=":-317682_1" function="internal">
        <lane id=":-317682_1_0" index="0" speed="22.22" length="3.32" shape="918.48,154.38 918.76,151.07"/>
    </edge>
    <edge id=":-317684_0" function="internal">
        <lane id=":-317684_0_0" index="0" speed="22.22" length="6.57" shape="1087.40,753.62 1085.40,759.88"/>
    </edge>
    <edge id=":-317684_1" function="internal">
        <lane id=":-317684_1_0" index="0" speed="22.22" length="5.57" shape="1087.40,753.62 1086.31,755.62 1084.73,756.30 1083.22,755.84"/>
    </edge>
    <edge id=":-317684_2" function="internal">
        <lane id=":-317684_2_0" index="0" speed="22.22" length="2.41" shape="1087.40,753.62 1086.24,754.55 1085.33,754.69"/>
    </edge>
    <edge id=":-317684_6" function="internal">
        <lane id=":-317684_6_0" index="0" speed="22.22" length="3.82" shape="1083.22,755.84 1082.65,755.67 1080.09,753.72"/>
    </edge>
    <edge id=":-317684_7" function="internal">
        <lane id=":-317684_7_0" index="0" speed="22.22" length="2.41" shape="1085.33,754.69 1084.67,754.05 1084.25,752.62"/>
    </edge>
    <edge id=":-317684_3" function="internal">
        <lane id=":-317684_3_0" index="0" speed="22.22" length="5.88" shape="1082.26,758.86 1082.42,757.64 1082.11,756.37 1081.33,755.07 1080.09,753.72"/>
    </edge>
    <edge id=":-317684_4" function="internal">
        <lane id=":-317684_4_0" index="0" speed="22.22" length="6.55" shape="1082.26,758.86 1084.25,752.62"/>
    </edge>
    <edge id=":-317684_5" function="internal">
        <lane id=":-317684_5_0" index="0" speed="22.22" length="2.41" shape="1082.26,758.86 1083.43,757.94 1084.34,757.80"/>
    </edge>
    <edge id=":-317684_8" function="internal">
        <lane id=":-317684_8_0" index="0" speed="22.22" length="2.41" shape="1084.34,757.80 1085.00,758.45 1085.40,759.88"/>
    </edge>
    <edge id=":-317696_0" function="internal">
        <lane id=":-317696_0_0" index="0" speed="25.00" length="4.45" shape="674.44,658.81 671.51,662.16"/>
    </edge>
    <edge id=":-317696_1" function="internal">
        <lane id=":-317696_1_0" index="0" speed="27.78" length="1.55" shape="671.52,662.36 671.51,662.16"/>
        <lane id=":-317696_1_1" index="1" speed="27.78" length="1.55" shape="674.44,658.63 671.44,658.86"/>
        <lane id=":-317696_1_2" index="2" speed="27.78" length="1.55" shape="672.82,655.52 671.38,655.56"/>
    </edge>
    <edge id=":-317710_0" function="internal">
        <lane id=":-317710_0_0" index="0" speed="22.22" length="0.10" shape="816.48,673.72 816.48,673.72"/>
    </edge>
    <edge id=":-317714_0" function="internal">
        <lane id=":-317714_0_0" index="0" speed="22.22" length="5.23" shape="853.75,738.55 852.29,738.74 851.33,739.36 850.87,740.40 850.91,741.88"/>
    </edge>
    <edge id=":-317714_1" function="internal">
        <lane id=":-317714_1_0" index="0" speed="22.22" length="6.01" shape="849.45,736.05 850.91,741.88"/>
    </edge>
    <edge id=":-317716_0" function="internal">
        <lane id=":-317716_0_0" index="0" speed="25.00" length="4.20" shape="564.52,660.12 561.66,657.05"/>
    </edge>
    <edge id=":-317716_1" function="internal">
        <lane id=":-317716_1_0" index="0" speed="27.78" length="3.00" shape="564.52,660.12 561.52,659.98"/>
        <lane id=":-317716_1_1" index="1" speed="27.78" length="3.00" shape="564.67,656.82 561.67,656.69"/>
        <lane id=":-317716_1_2" index="2" speed="27.78" length="3.00" shape="564.82,653.53 561.82,653.39"/>
    </edge>
    <edge id=":-317722_0" function="internal">
        <lane id=":-317722_0_0" index="0" speed="22.22" length="6.20" shape="1003.41,667.54 1003.48,668.70 1003.93,670.00 1004.76,671.45 1005.97,673.04"/>
    </edge>
    <edge id=":-317722_1" function="internal">
        <lane id=":-317722_1_0" index="0" speed="22.22" length="6.50" shape="1003.41,667.54 1001.78,673.84"/>
    </edge>
    <edge id=":-317724_0" function="internal">
        <lane id=":-317724_0_0" index="0" speed="22.22" length="0.35" shape="971.95,717.56 971.69,717.79"/>
    </edge>
    <edge id=":-317756_0" function="internal">
        <lane id=":-317756_0_0" index="0" speed="22.22" length="0.10" shape="531.18,624.66 531.18,624.66"/>
    </edge>
    <edge id=":-317766_0" function="internal">
        <lane id=":-317766_0_0" index="0" speed="22.22" length="3.23" shape="762.92,603.75 765.97,602.69"/>
    </edge>
    <edge id=":-317766_1" function="internal">
        <lane id=":-317766_1_0" index="0" speed="22.22" length="3.19" shape="762.92,603.75 766.02,602.98"/>
    </edge>
    <edge id=":-317772_0" function="internal">
        <lane id=":-317772_0_0" index="0" speed="27.78" length="0.27" shape="489.82,638.49 489.90,638.49"/>
        <lane id=":-317772_0_1" index="1" speed="27.78" length="0.27" shape="489.69,641.78 489.96,641.79"/>
        <lane id=":-317772_0_2" index="2" speed="27.78" length="0.27" shape="489.57,645.08 490.02,645.09"/>
    </edge>
    <edge id=":-317784_0" function="internal">
        <lane id=":-317784_0_0" index="0" speed="22.22" length="0.10" shape="922.64,330.77 922.64,330.77"/>
    </edge>
    <edge id=":-317788_0" function="internal">
        <lane id=":-317788_0_0" index="0" speed="25.00" length="4.26" shape="944.45,156.28 941.50,159.35"/>
    </edge>
    <edge id=":-317788_1" function="internal">
        <lane id=":-317788_1_0" index="0" speed="27.78" length="3.96" shape="941.15,156.35 944.51,159.30"/>
        <lane id=":-317788_1_1" index="1" speed="27.78" length="3.96" shape="937.85,156.43 941.21,159.35"/>
        <lane id=":-317788_1_2" index="2" speed="27.78" length="3.96" shape="937.85,156.43 937.91,159.40"/>
    </edge>
    <edge id=":-317796_0" function="internal">
        <lane id=":-317796_0_0" index="0" speed="22.22" length="0.22" shape="988.78,700.01 988.63,700.18"/>
    </edge>
    <edge id=":-317800_0" function="internal">
        <lane id=":-317800_0_0" index="0" speed="27.78" length="0.96" shape="842.95,595.31 841.74,596.36"/>
        <lane id=":-317800_0_1" index="1" speed="27.78" length="0.96" shape="840.56,593.04 839.83,593.67"/>
        <lane id=":-317800_0_2" index="2" speed="27.78" length="0.96" shape="838.16,590.77 837.93,590.97"/>
    </edge>
    <edge id=":-317802_0" function="internal">
        <lane id=":-317802_0_0" index="0" speed="27.78" length="0.10" shape="491.35,656.80 491.39,656.80"/>
        <lane id=":-317802_0_1" index="1" speed="27.78" length="0.10" shape="491.50,653.50 491.50,653.50"/>
        <lane id=":-317802_0_2" index="2" speed="27.78" length="0.10" shape="491.65,650.20 491.65,650.20"/>
    </edge>
    <edge id=":-317804_0" function="internal">
        <lane id=":-317804_0_0" index="0" speed="22.22" length="4.82" shape="1501.40,664.96 1501.89,666.37 1501.72,667.27 1500.90,667.68 1499.41,667.60"/>
    </edge>
    <edge id=":-317808_0" function="internal">
        <lane id=":-317808_0_0" index="0" speed="25.00" length="3.63" shape="517.16,638.00 520.66,639.24"/>
        <lane id=":-317808_0_1" index="1" speed="25.00" length="3.63" shape="517.22,641.30 520.49,642.64"/>
    </edge>
    <edge id=":-317808_2" function="internal">
        <lane id=":-317808_2_0" index="0" speed="27.78" length="5.04" shape="517.28,644.60 520.72,638.06"/>
        <lane id=":-317808_2_1" index="1" speed="27.78" length="5.04" shape="517.28,644.60 520.56,641.35"/>
        <lane id=":-317808_2_2" index="2" speed="27.78" length="5.04" shape="517.28,644.60 520.39,644.65"/>
    </edge>
    <edge id=":-317840_0" function="internal">
        <lane id=":-317840_0_0" index="0" speed="22.22" length="3.00" shape="499.57,669.45 496.57,669.31"/>
    </edge>
    <edge id=":-317840_1" function="internal">
        <lane id=":-317840_1_0" index="0" speed="22.22" length="3.02" shape="499.58,669.09 496.57,669.31"/>
    </edge>
    <edge id=":-317846_0" function="internal">
        <lane id=":-317846_0_0" index="0" speed="22.22" length="8.04" shape="969.95,475.18 970.95,483.16"/>
    </edge>
    <edge id=":-317846_1" function="internal">
        <lane id=":-317846_1_0" index="0" speed="22.22" length="8.00" shape="969.95,475.18 967.00,482.62"/>
    </edge>
    <edge id=":-317850_0" function="internal">
        <lane id=":-317850_0_0" index="0" speed="22.22" length="0.37" shape="804.85,587.86 805.18,587.68"/>
    </edge>
    <edge id=":-317856_0" function="internal">
        <lane id=":-317856_0_0" index="0" speed="22.22" length="16.24" shape="909.29,388.18 908.91,384.26 908.50,380.10 908.16,375.94 908.01,372.00"/>
    </edge>
    <edge id=":-317856_1" function="internal">
        <lane id=":-317856_1_0" index="0" speed="22.22" length="16.24" shape="905.76,388.06 906.44,384.17 907.18,380.05 907.78,375.92 908.01,372.00"/>
    </edge>
    <edge id=":-317858_0" function="internal">
        <lane id=":-317858_0_0" index="0" speed="22.22" length="0.61" shape="888.96,612.77 888.91,613.38"/>
    </edge>
    <edge id=":-317860_0" function="internal">
        <lane id=":-317860_0_0" index="0" speed="22.22" length="3.21" shape="496.03,629.37 499.23,629.15"/>
    </edge>
    <edge id=":-317860_1" function="internal">
        <lane id=":-317860_1_0" index="0" speed="22.22" length="3.16" shape="496.03,629.37 499.19,629.55"/>
    </edge>
    <edge id=":-317866_0" function="internal">
        <lane id=":-317866_0_0" index="0" speed="25.00" length="4.53" shape="912.58,470.42 916.25,467.77"/>
    </edge>
    <edge id=":-317866_1" function="internal">
        <lane id=":-317866_1_0" index="0" speed="27.78" length="4.10" shape="912.58,470.42 913.61,467.24"/>
        <lane id=":-317866_1_1" index="1" speed="27.78" length="4.10" shape="915.58,471.79 916.85,467.90"/>
        <lane id=":-317866_1_2" index="2" speed="27.78" length="4.10" shape="918.58,473.16 920.08,468.55"/>
    </edge>
    <edge id=":-317874_0" function="internal">
        <lane id=":-317874_0_0" index="0" speed="33.33" length="3.17" shape="996.93,608.38 1000.10,608.57"/>
    </edge>
    <edge id=":-317874_1" function="internal">
        <lane id=":-317874_1_0" index="0" speed="33.33" length="1.43" shape="1000.09,610.44 1000.08,611.87"/>
        <lane id=":-317874_1_1" index="1" speed="33.33" length="1.43" shape="1000.07,613.74 1000.06,615.17"/>
    </edge>
    <edge id=":-317910_0" function="internal">
        <lane id=":-317910_0_0" index="0" speed="22.22" length="0.25" shape="927.44,507.69 927.37,507.93"/>
    </edge>
    <edge id=":-317940_0" function="internal">
        <lane id=":-317940_0_0" index="0" speed="25.00" length="4.17" shape="943.34,107.63 940.47,110.65"/>
    </edge>
    <edge id=":-317940_1" function="internal">
        <lane id=":-317940_1_0" index="0" speed="27.78" length="2.99" shape="943.34,107.63 943.39,110.59"/>
        <lane id=":-317940_1_1" index="1" speed="27.78" length="2.99" shape="940.04,107.67 940.09,110.66"/>
        <lane id=":-317940_1_2" index="2" speed="27.78" length="2.99" shape="936.74,107.71 936.79,110.74"/>
    </edge>
    <edge id=":-317946_0" function="internal">
        <lane id=":-317946_0_0" index="0" speed="33.33" length="3.28" shape="1078.50,636.74 1075.51,635.40"/>
    </edge>
    <edge id=":-317946_1" function="internal">
        <lane id=":-317946_1_0" index="0" speed="33.33" length="3.42" shape="1078.52,633.44 1075.51,635.07"/>
    </edge>
    <edge id=":-317962_0" function="internal">
        <lane id=":-317962_0_0" index="0" speed="22.22" length="3.30" shape="956.53,166.51 956.95,169.78"/>
    </edge>
    <edge id=":-317962_1" function="internal">
        <lane id=":-317962_1_0" index="0" speed="22.22" length="3.37" shape="956.12,166.52 956.95,169.78"/>
    </edge>
    <edge id=":-317974_0" function="internal">
        <lane id=":-317974_0_0" index="0" speed="22.22" length="0.10" shape="828.39,674.92 828.39,674.92"/>
    </edge>
    <edge id=":-317976_0" function="internal">
        <lane id=":-317976_0_0" index="0" speed="22.22" length="0.10" shape="813.90,647.10 813.90,647.10"/>
    </edge>
    <edge id=":-317984_0" function="internal">
        <lane id=":-317984_0_0" index="0" speed="22.22" length="5.42" shape="826.77,659.31 825.23,659.56 824.30,660.23 823.98,661.34 824.27,662.87"/>
    </edge>
    <edge id=":-317984_1" function="internal">
        <lane id=":-317984_1_0" index="0" speed="22.22" length="6.32" shape="826.77,659.31 820.45,659.34"/>
    </edge>
    <edge id=":-317986_0" function="internal">
        <lane id=":-317986_0_0" index="0" speed="22.22" length="0.10" shape="845.60,725.33 845.60,725.32"/>
    </edge>
    <edge id=":-317988_0" function="internal">
        <lane id=":-317988_0_0" index="0" speed="22.22" length="3.29" shape="889.73,739.28 886.46,738.93"/>
    </edge>
    <edge id=":-317988_1" function="internal">
        <lane id=":-317988_1_0" index="0" speed="22.22" length="3.34" shape="889.80,738.94 886.46,738.93"/>
    </edge>
    <edge id=":-317994_0" function="internal">
        <lane id=":-317994_0_0" index="0" speed="25.00" length="15.00" shape="796.71,597.44 800.20,597.16 803.51,597.07 806.99,596.29 810.98,593.98"/>
    </edge>
    <edge id=":-317994_1" function="internal">
        <lane id=":-317994_1_0" index="0" speed="27.78" length="15.20" shape="797.98,600.89 801.87,598.88 804.68,597.73 807.39,596.44 810.98,593.98"/>
        <lane id=":-317994_1_1" index="1" speed="27.78" length="15.20" shape="799.65,603.74 803.65,601.66 806.53,600.47 809.31,599.12 813.00,596.58"/>
        <lane id=":-317994_1_2" index="2" speed="27.78" length="15.20" shape="801.32,606.59 805.43,604.44 808.39,603.20 811.24,601.81 815.03,599.19"/>
    </edge>
    <edge id=":-318004_0" function="internal">
        <lane id=":-318004_0_0" index="0" speed="22.22" length="4.82" shape="1000.82,1375.43 1000.02,1376.68 999.20,1377.11 998.37,1376.71 997.52,1375.49"/>
    </edge>
    <edge id=":-318012_0" function="internal">
        <lane id=":-318012_0_0" index="0" speed="22.22" length="0.21" shape="982.99,726.37 982.83,726.51"/>
    </edge>
    <edge id=":-318024_0" function="internal">
        <lane id=":-318024_0_0" index="0" speed="22.22" length="14.32" shape="912.14,94.58 911.70,90.96 911.25,87.47 910.91,83.98 910.77,80.34"/>
    </edge>
    <edge id=":-318024_1" function="internal">
        <lane id=":-318024_1_0" index="0" speed="22.22" length="14.32" shape="908.55,94.46 909.27,90.88 909.99,87.43 910.55,83.96 910.77,80.34"/>
    </edge>
    <edge id=":-318028_0" function="internal">
        <lane id=":-318028_0_0" index="0" speed="22.22" length="3.59" shape="913.53,570.36 911.45,573.28"/>
    </edge>
    <edge id=":-318028_1" function="internal">
        <lane id=":-318028_1_0" index="0" speed="22.22" length="3.45" shape="913.53,570.36 911.09,572.79"/>
    </edge>
    <edge id=":-318036_0" function="internal">
        <lane id=":-318036_0_0" index="0" speed="22.22" length="4.82" shape="823.03,1157.71 822.18,1158.94 821.35,1159.34 820.53,1158.91 819.73,1157.66"/>
    </edge>
    <edge id=":-318038_0" function="internal">
        <lane id=":-318038_0_0" index="0" speed="22.22" length="0.13" shape="779.30,602.86 779.46,602.79"/>
        <lane id=":-318038_0_1" index="1" speed="22.22" length="0.13" shape="780.68,605.86 780.68,605.86"/>
    </edge>
    <edge id=":-318044_0" function="internal">
        <lane id=":-318044_0_0" index="0" speed="27.78" length="27.87" shape="926.39,129.61 926.59,120.79 927.11,114.23 927.64,108.40 927.86,101.79"/>
        <lane id=":-318044_0_1" index="1" speed="27.78" length="27.87" shape="929.69,129.59 929.89,120.77 930.41,114.20 930.94,108.37 931.16,101.77"/>
    </edge>
    <edge id=":-318044_2" function="internal">
        <lane id=":-318044_2_0" index="0" speed="25.00" length="28.00" shape="922.93,129.29 924.10,124.33 925.77,117.45 927.25,109.61 927.86,101.79"/>
    </edge>
    <edge id=":-318052_0" function="internal">
        <lane id=":-318052_0_0" index="0" speed="22.22" length="3.19" shape="579.75,630.52 582.92,630.81"/>
    </edge>
    <edge id=":-318052_1" function="internal">
        <lane id=":-318052_1_0" index="0" speed="22.22" length="2.21" shape="579.54,631.85 582.92,630.81"/>
        <lane id=":-318052_1_1" index="1" speed="22.22" length="2.21" shape="582.79,635.00 582.82,634.11"/>
    </edge>
    <edge id=":-318070_0" function="internal">
        <lane id=":-318070_0_0" index="0" speed="25.00" length="7.45" shape="818.28,622.88 817.01,630.22"/>
    </edge>
    <edge id=":-318070_1" function="internal">
        <lane id=":-318070_1_0" index="0" speed="27.78" length="59.90" shape="759.84,644.99 765.14,644.95 788.82,638.68 812.31,631.87 817.01,630.22"/>
        <lane id=":-318070_1_1" index="1" speed="27.78" length="59.90" shape="758.38,642.03 763.78,641.95 787.68,635.60 811.38,628.71 816.18,627.03"/>
        <lane id=":-318070_1_2" index="2" speed="27.78" length="59.90" shape="756.93,639.07 762.42,638.95 786.53,632.51 810.46,625.55 815.35,623.83"/>
    </edge>
    <edge id=":-318084_0" function="internal">
        <lane id=":-318084_0_0" index="0" speed="22.22" length="0.10" shape="835.60,725.84 835.60,725.84"/>
    </edge>
    <edge id=":-318090_0" function="internal">
        <lane id=":-318090_0_0" index="0" speed="27.78" length="0.73" shape="844.75,567.73 844.93,567.57"/>
        <lane id=":-318090_0_1" index="1" speed="27.78" length="0.73" shape="846.77,570.34 847.32,569.85"/>
        <lane id=":-318090_0_2" index="2" speed="27.78" length="0.73" shape="848.80,572.95 849.71,572.12"/>
    </edge>
    <edge id=":-318100_0" function="internal">
        <lane id=":-318100_0_0" index="0" speed="22.22" length="0.31" shape="838.28,861.92 838.27,862.24"/>
    </edge>
    <edge id=":-318100_1" function="internal">
        <lane id=":-318100_1_0" index="0" speed="22.22" length="2.39" shape="838.28,861.92 837.41,863.11 836.58,863.49"/>
    </edge>
    <edge id=":-318100_4" function="internal">
        <lane id=":-318100_4_0" index="0" speed="22.22" length="2.39" shape="836.58,863.49 835.78,863.05 835.01,861.79"/>
    </edge>
    <edge id=":-318100_2" function="internal">
        <lane id=":-318100_2_0" index="0" speed="22.22" length="0.10" shape="834.99,861.89 835.01,861.79"/>
    </edge>
    <edge id=":-318100_3" function="internal">
        <lane id=":-318100_3_0" index="0" speed="22.22" length="2.41" shape="834.99,861.89 835.94,860.74 836.81,860.42"/>
    </edge>
    <edge id=":-318100_5" function="internal">
        <lane id=":-318100_5_0" index="0" speed="22.22" length="2.41" shape="836.81,860.42 837.58,860.92 838.27,862.24"/>
    </edge>
    <edge id=":-318104_0" function="internal">
        <lane id=":-318104_0_0" index="0" speed="22.22" length="0.52" shape="1003.82,706.93 1003.38,707.22"/>
    </edge>
    <edge id=":-318118_0" function="internal">
        <lane id=":-318118_0_0" index="0" speed="22.22" length="5.67" shape="812.47,662.79 811.72,661.23 810.80,660.16 809.70,659.56 808.43,659.45"/>
    </edge>
    <edge id=":-318118_1" function="internal">
        <lane id=":-318118_1_0" index="0" speed="22.22" length="6.55" shape="814.98,659.25 808.43,659.45"/>
    </edge>
    <edge id=":-318120_0" function="internal">
        <lane id=":-318120_0_0" index="0" speed="22.22" length="0.10" shape="726.78,615.07 726.78,615.07"/>
    </edge>

    <edge id="--318126#0" from="-317680" to="-317804" priority="6" type="highway.tertiary" shape="1087.77,747.02 1118.31,662.82 1128.76,653.83 1140.62,648.99 1468.03,650.89 1485.10,654.77 1500.40,666.28">
        <lane id="--318126#0_0" index="0" speed="22.22" length="478.90" shape="1087.73,742.27 1116.90,661.85 1127.89,652.40 1140.30,647.34 1468.22,649.24 1485.81,653.24 1501.40,664.96"/>
    </edge>
    <edge id="--318126#1" from="-317684" to="-317680" priority="6" type="highway.tertiary">
        <lane id="--318126#1_0" index="0" speed="22.22" length="4.56" shape="1084.25,752.62 1085.63,748.28"/>
    </edge>
    <edge id="--318126#2" from="-318004" to="-317684" priority="6" type="highway.tertiary" shape="999.17,1375.46 997.71,1284.75 999.45,1185.36 997.08,1049.77 1001.57,1017.45 1010.27,985.21 1033.39,914.20 1084.37,757.69">
        <lane id="--318126#2_0" index="0" speed="22.22" length="629.82" shape="997.52,1375.49 996.06,1284.78 997.80,1185.33 995.43,1049.80 999.93,1017.23 1008.68,984.78 1031.82,913.69 1082.26,758.86"/>
    </edge>
    <edge id="--318134" from="-318036" to="-318100" priority="6" type="highway.tertiary" shape="821.38,1157.69 823.65,1025.38 829.04,928.48 835.34,873.39">
        <lane id="--318134_0" index="0" speed="22.22" length="296.37" shape="819.73,1157.66 822.00,1025.35 827.39,928.38 834.99,861.89"/>
    </edge>
    <edge id="-318124#0" from="-317652" to="-317860" priority="6" type="highway.tertiary" spreadType="center" shape="250.79,620.91 342.88,623.65 365.22,624.57 479.26,629.27 483.80,629.30 497.62,629.37">
        <lane id="-318124#0_0" index="0" speed="22.22" length="245.40" shape="250.79,620.91 342.88,623.65 365.22,624.57 479.26,629.27 483.80,629.30 496.03,629.37"/>
    </edge>
    <edge id="-318124#1" from="-317860" to="-317756" priority="6" type="highway.tertiary" spreadType="center">
        <lane id="-318124#1_0" index="0" speed="22.22" length="32.26" shape="499.23,629.15 531.18,624.66"/>
    </edge>
    <edge id="-318126#0" from="-317804" to="-317680" priority="6" type="highway.tertiary" shape="1500.40,666.28 1485.10,654.77 1468.03,650.89 1140.62,648.99 1128.76,653.83 1118.31,662.82 1087.77,747.02">
        <lane id="-318126#0_0" index="0" speed="22.22" length="472.65" shape="1499.41,667.60 1484.39,656.30 1467.84,652.54 1140.94,650.64 1129.64,655.26 1119.71,663.79 1090.84,743.39"/>
    </edge>
    <edge id="-318126#1" from="-317680" to="-317684" priority="6" type="highway.tertiary">
        <lane id="-318126#1_0" index="0" speed="22.22" length="4.56" shape="1088.78,749.27 1087.40,753.62"/>
    </edge>
    <edge id="-318126#2" from="-317684" to="-318004" priority="6" type="highway.tertiary" shape="1084.37,757.69 1033.39,914.20 1010.27,985.21 1001.57,1017.45 997.08,1049.77 999.45,1185.36 997.71,1284.75 999.17,1375.46">
        <lane id="-318126#2_0" index="0" speed="22.22" length="628.73" shape="1085.40,759.88 1034.96,914.71 1011.84,985.72 1003.16,1017.88 998.71,1050.00 1001.10,1185.33 999.36,1284.78 1000.82,1375.43"/>
    </edge>
    <edge id="-318128" from="-317802" to="-317654" priority="11" type="highway.trunk" spreadType="center">
        <lane id="-318128_0" index="0" speed="27.78" length="491.79" shape="491.39,656.80 -0.11,640.17"/>
        <lane id="-318128_1" index="1" speed="27.78" length="491.79" shape="491.50,653.50 0.00,636.87"/>
        <lane id="-318128_2" index="2" speed="27.78" length="491.79" shape="491.65,650.20 0.11,633.58"/>
    </edge>
    <edge id="-318130" from="-317656" to="-317772" priority="11" type="highway.trunk" spreadType="center">
        <lane id="-318130_0" index="0" speed="27.78" length="489.42" shape="0.74,620.31 489.82,638.49"/>
        <lane id="-318130_1" index="1" speed="27.78" length="489.42" shape="0.61,623.61 489.69,641.78"/>
        <lane id="-318130_2" index="2" speed="27.78" length="489.42" shape="0.49,626.90 489.57,645.08"/>
    </edge>
    <edge id="-318132#0" from="-318118" to="-317840" priority="6" type="highway.tertiary" spreadType="center" shape="811.15,659.20 729.57,666.85 689.14,671.40 662.33,674.74 633.35,675.24 498.07,669.39">
        <lane id="-318132#0_0" index="0" speed="22.22" length="309.80" shape="808.43,659.45 729.57,666.85 689.14,671.40 662.33,674.74 633.35,675.24 499.57,669.45"/>
    </edge>
    <edge id="-318132#1" from="-317840" to="-317658" priority="6" type="highway.tertiary" spreadType="center" shape="498.07,669.39 363.86,663.07 249.20,658.21">
        <lane id="-318132#1_0" index="0" speed="22.22" length="247.63" shape="496.57,669.31 363.86,663.07 249.20,658.21"/>
    </edge>
    <edge id="-318134" from="-318100" to="-318036" priority="6" type="highway.tertiary" shape="835.34,873.39 829.04,928.48 823.65,1025.38 821.38,1157.69">
        <lane id="-318134_0" index="0" speed="22.22" length="296.08" shape="838.27,862.24 830.68,928.66 825.29,1025.47 823.03,1157.71"/>
    </edge>
    <edge id="-318136#0" from="-318090" to="-317866" priority="11" type="highway.trunk" spreadType="center" shape="847.06,570.11 875.20,540.52 901.85,501.87 916.44,469.92">
        <lane id="-318136#0_0" index="0" speed="27.78" length="120.48" shape="844.93,567.57 872.81,538.25 898.97,500.23 912.58,470.42"/>
        <lane id="-318136#0_1" index="1" speed="27.78" length="120.48" shape="847.32,569.85 875.20,540.52 901.85,501.87 915.58,471.79"/>
        <lane id="-318136#0_2" index="2" speed="27.78" length="120.48" shape="849.71,572.12 877.59,542.79 904.73,503.50 918.58,473.16"/>
    </edge>
    <edge id="-318136#1" from="-317866" to="-318044" priority="11" type="highway.trunk" spreadType="center" shape="916.44,469.92 922.55,439.75 928.44,407.85 931.23,367.74 929.46,95.12">
        <lane id="-318136#1_0" index="0" speed="27.78" length="339.52" shape="913.61,467.24 919.32,439.10 925.19,407.25 927.94,367.51 926.39,129.61"/>
        <lane id="-318136#1_1" index="1" speed="27.78" length="339.52" shape="916.85,467.90 922.55,439.75 928.44,407.85 931.23,367.74 929.69,129.59"/>
        <lane id="-318136#1_2" index="2" speed="27.78" length="339.52" shape="920.08,468.55 925.78,440.41 931.68,408.45 934.52,367.97 932.99,129.57"/>
    </edge>
    <edge id="-318138#0" from="-317660" to="-317940" priority="11" type="highway.trunk" spreadType="center">
        <lane id="-318138#0_0" index="0" speed="27.78" length="107.68" shape="942.03,-0.04 943.34,107.63"/>
        <lane id="-318138#0_1" index="1" speed="27.78" length="107.68" shape="938.73,0.00 940.04,107.67"/>
        <lane id="-318138#0_2" index="2" speed="27.78" length="107.68" shape="935.43,0.04 936.74,107.71"/>
    </edge>
    <edge id="-318138#1" from="-317940" to="-317788" priority="11" type="highway.trunk" spreadType="center">
        <lane id="-318138#1_0" index="0" speed="27.78" length="45.70" shape="943.39,110.59 944.45,156.28"/>
        <lane id="-318138#1_1" index="1" speed="27.78" length="45.70" shape="940.09,110.66 941.15,156.35"/>
        <lane id="-318138#1_2" index="2" speed="27.78" length="45.70" shape="936.79,110.74 937.85,156.43"/>
    </edge>
    <edge id="-318138#2" from="-317788" to="-317800" priority="11" type="highway.trunk" spreadType="center" shape="941.19,157.85 944.18,370.09 938.31,422.04 927.72,470.03 908.58,509.59 883.19,548.13 840.23,593.39">
        <lane id="-318138#2_0" index="0" speed="27.78" length="464.21" shape="944.51,159.30 947.48,370.04 941.59,422.41 930.86,471.12 911.55,511.03 885.78,550.19 842.95,595.31"/>
        <lane id="-318138#2_1" index="1" speed="27.78" length="464.21" shape="941.21,159.35 944.18,370.09 938.31,422.04 927.72,470.03 908.58,509.59 883.19,548.13 840.56,593.04"/>
        <lane id="-318138#2_2" index="2" speed="27.78" length="464.21" shape="937.91,159.40 940.88,370.13 935.03,421.67 924.58,468.94 905.61,508.16 880.59,546.07 838.16,590.77"/>
    </edge>
    <edge id="-318140" from="-317874" to="-317662" priority="13" type="highway.motorway" spreadType="center">
        <lane id="-318140_0" index="0" speed="44.44" length="766.10" shape="1000.10,608.57 1766.18,613.45"/>
        <lane id="-318140_1" index="1" speed="44.44" length="766.10" shape="1000.08,611.87 1766.16,616.75"/>
        <lane id="-318140_2" index="2" speed="44.44" length="766.10" shape="1000.06,615.17 1766.14,620.05"/>
    </edge>
    <edge id="-318142" from="-317664" to="-317946" priority="13" type="highway.motorway" spreadType="center">